** 3M Material Data
** Copyright 3M Company
**
** PLEASE SEE IMPORTANT LEGAL DISCLAIMER REGARDING THE USE OF THIS MATERIAL MODEL AT:
** https://3m.com/fea
**
** Export date: 2021-07-27
**
** Unit system: mm-g-ms
**
** Verification code: 0eb29bc3e73d92838185ed04617ff4a751db86c6d6a1a6397b65417b4e75da15
**
*Material, name="oca2_dma"
*Density, dependencies=0
 1.000000000e-03
*Hyperelastic, REDUCED POLYNOMIAL, n=3, moduli=INSTANTANEOUS
 4.780398325e+01,  1.156286568e+01, -1.132393608e-01,  8.695652174e-04,  0.000000000e+00,  0.000000000e+00
*Viscoelastic, time=PRONY
 2.505011949e-01,  0.000000000e+00,  1.000000000e-07
 2.812423071e-01,  0.000000000e+00,  1.000000000e-06
 2.127511492e-01,  0.000000000e+00,  1.000000000e-05
 1.518013691e-01,  0.000000000e+00,  1.000000000e-04
 7.114944314e-02,  0.000000000e+00,  1.000000000e-03
 2.345200871e-02,  0.000000000e+00,  1.000000000e-02
 6.450866092e-03,  0.000000000e+00,  1.000000000e-01
 1.702045060e-03,  0.000000000e+00,  1.000000000e+00
 5.542339228e-04,  0.000000000e+00,  1.000000000e+01
 2.164960055e-04,  0.000000000e+00,  1.000000000e+02
 1.016696705e-04,  0.000000000e+00,  1.000000000e+03
 4.261788852e-05,  0.000000000e+00,  1.000000000e+04
 1.767737196e-05,  0.000000000e+00,  1.000000000e+05
 1.015106723e-06,  0.000000000e+00,  1.000000000e+06
