** 3M Material Data
** Copyright 3M Company
**
** PLEASE SEE IMPORTANT LEGAL DISCLAIMER REGARDING THE USE OF THIS MATERIAL MODEL AT:
** https://3m.com/fea
**
** Export date: 2021-07-27
**
** Unit system: in-lbf-s
**
** Verification code: 051b1836c68351f385359007a6836603bcf03e12fac22ea82553003bd049eb03
**
*Material, name="oca2_dma"
*Density, dependencies=0
 9.357250466e-05
*Hyperelastic, REDUCED POLYNOMIAL, n=3, moduli=INSTANTANEOUS
 6.933378863e+03,  1.677051221e+03, -1.642397426e+01,  5.995443478e-06,  0.000000000e+00,  0.000000000e+00
*Viscoelastic, time=PRONY
 2.505011949e-01,  0.000000000e+00,  1.000000000e-10
 2.812423071e-01,  0.000000000e+00,  1.000000000e-09
 2.127511492e-01,  0.000000000e+00,  1.000000000e-08
 1.518013691e-01,  0.000000000e+00,  1.000000000e-07
 7.114944314e-02,  0.000000000e+00,  1.000000000e-06
 2.345200871e-02,  0.000000000e+00,  1.000000000e-05
 6.450866092e-03,  0.000000000e+00,  1.000000000e-04
 1.702045060e-03,  0.000000000e+00,  1.000000000e-03
 5.542339228e-04,  0.000000000e+00,  1.000000000e-02
 2.164960055e-04,  0.000000000e+00,  1.000000000e-01
 1.016696705e-04,  0.000000000e+00,  1.000000000e+00
 4.261788852e-05,  0.000000000e+00,  1.000000000e+01
 1.767737196e-05,  0.000000000e+00,  1.000000000e+02
 1.015106723e-06,  0.000000000e+00,  1.000000000e+03
