** 3M Material Data
** Copyright 3M Company
**
** PLEASE SEE IMPORTANT LEGAL DISCLAIMER REGARDING THE USE OF THIS MATERIAL MODEL AT:
** https://3m.com/fea
**
** Export date: 2021-07-27
**
** Unit system: cm-g-s
**
** Verification code: ba705a2781560b13d39f5b3b9260985114839ec33d5856db992f83d2a92bc49a
**
*Material, name="oca2_dma"
*Density, dependencies=0
 1.000000000e+00
*Hyperelastic, REDUCED POLYNOMIAL, n=3, moduli=INSTANTANEOUS
 4.780398325e+08,  1.156286568e+08, -1.132393608e+06,  8.695652174e-11,  0.000000000e+00,  0.000000000e+00
*Viscoelastic, time=PRONY
 2.505011949e-01,  0.000000000e+00,  1.000000000e-10
 2.812423071e-01,  0.000000000e+00,  1.000000000e-09
 2.127511492e-01,  0.000000000e+00,  1.000000000e-08
 1.518013691e-01,  0.000000000e+00,  1.000000000e-07
 7.114944314e-02,  0.000000000e+00,  1.000000000e-06
 2.345200871e-02,  0.000000000e+00,  1.000000000e-05
 6.450866092e-03,  0.000000000e+00,  1.000000000e-04
 1.702045060e-03,  0.000000000e+00,  1.000000000e-03
 5.542339228e-04,  0.000000000e+00,  1.000000000e-02
 2.164960055e-04,  0.000000000e+00,  1.000000000e-01
 1.016696705e-04,  0.000000000e+00,  1.000000000e+00
 4.261788852e-05,  0.000000000e+00,  1.000000000e+01
 1.767737196e-05,  0.000000000e+00,  1.000000000e+02
 1.015106723e-06,  0.000000000e+00,  1.000000000e+03
